<?xml version="1.0" encoding="UTF-8"?>

<!-- generated on 05/27/25 17:34:22 by Eclipse SUMO netconvert Version 1.8.0
<configuration xmlns:xsi="http://www.w3.org/2001/XMLSchema-instance" xsi:noNamespaceSchemaLocation="http://sumo.dlr.de/xsd/netconvertConfiguration.xsd">

    <input>
        <osm-files value="map.osm"/>
    </input>

    <output>
        <output-file value="map.net.xml"/>
    </output>

    <projection>
        <proj.utm value="true"/>
    </projection>

    <processing>
        <geometry.remove value="true"/>
        <roundabouts.guess value="true"/>
    </processing>

    <tls_building>
        <tls.discard-simple value="true"/>
        <tls.join value="true"/>
        <tls.guess-signals value="true"/>
    </tls_building>

    <ramp_guessing>
        <ramps.guess value="true"/>
    </ramp_guessing>

    <junctions>
        <junctions.join value="true"/>
    </junctions>

    <report>
        <aggregate-warnings value="5"/>
    </report>

</configuration>
-->

<net version="1.6" junctionCornerDetail="5" limitTurnSpeed="5.50" xmlns:xsi="http://www.w3.org/2001/XMLSchema-instance" xsi:noNamespaceSchemaLocation="http://sumo.dlr.de/xsd/net_file.xsd">

    <location netOffset="-377508.48,-3318758.93" convBoundary="0.00,0.00,4113.11,3114.68" origBoundary="31.726084,29.991970,31.772426,30.021980" projParameter="+proj=utm +zone=36 +ellps=WGS84 +datum=WGS84 +units=m +no_defs"/>

    <type id="highway.bridleway" priority="1" numLanes="1" speed="2.78" allow="pedestrian" oneway="1" width="2.00"/>
    <type id="highway.bus_guideway" priority="1" numLanes="1" speed="27.78" allow="bus" oneway="1"/>
    <type id="highway.cycleway" priority="1" numLanes="1" speed="8.33" allow="bicycle" oneway="0" width="1.00"/>
    <type id="highway.footway" priority="1" numLanes="1" speed="2.78" allow="pedestrian" oneway="1" width="2.00"/>
    <type id="highway.ford" priority="1" numLanes="1" speed="2.78" allow="army" oneway="0"/>
    <type id="highway.living_street" priority="2" numLanes="1" speed="2.78" disallow="tram rail_urban rail rail_electric rail_fast ship" oneway="0"/>
    <type id="highway.motorway" priority="14" numLanes="2" speed="39.44" allow="private emergency authority army vip passenger hov taxi bus coach delivery truck trailer motorcycle evehicle custom1 custom2" oneway="1"/>
    <type id="highway.motorway_link" priority="9" numLanes="1" speed="22.22" allow="private emergency authority army vip passenger hov taxi bus coach delivery truck trailer motorcycle evehicle custom1 custom2" oneway="1"/>
    <type id="highway.path" priority="1" numLanes="1" speed="2.78" allow="pedestrian bicycle" oneway="0" width="2.00"/>
    <type id="highway.pedestrian" priority="1" numLanes="1" speed="2.78" allow="pedestrian" oneway="1" width="2.00"/>
    <type id="highway.primary" priority="12" numLanes="2" speed="27.78" disallow="tram rail_urban rail rail_electric rail_fast ship" oneway="0"/>
    <type id="highway.primary_link" priority="7" numLanes="1" speed="22.22" disallow="tram rail_urban rail rail_electric rail_fast ship" oneway="0"/>
    <type id="highway.raceway" priority="15" numLanes="2" speed="83.33" allow="vip" oneway="0"/>
    <type id="highway.residential" priority="3" numLanes="1" speed="13.89" disallow="tram rail_urban rail rail_electric rail_fast ship" oneway="0"/>
    <type id="highway.secondary" priority="11" numLanes="1" speed="27.78" disallow="tram rail_urban rail rail_electric rail_fast ship" oneway="0"/>
    <type id="highway.secondary_link" priority="6" numLanes="1" speed="22.22" disallow="tram rail_urban rail rail_electric rail_fast ship" oneway="0"/>
    <type id="highway.service" priority="1" numLanes="1" speed="5.56" allow="pedestrian delivery bicycle" oneway="0"/>
    <type id="highway.stairs" priority="1" numLanes="1" speed="1.39" allow="pedestrian" oneway="1" width="2.00"/>
    <type id="highway.step" priority="1" numLanes="1" speed="1.39" allow="pedestrian" oneway="1" width="2.00"/>
    <type id="highway.steps" priority="1" numLanes="1" speed="1.39" allow="pedestrian" oneway="1" width="2.00"/>
    <type id="highway.tertiary" priority="10" numLanes="1" speed="22.22" disallow="tram rail_urban rail rail_electric rail_fast ship" oneway="0"/>
    <type id="highway.tertiary_link" priority="5" numLanes="1" speed="22.22" disallow="tram rail_urban rail rail_electric rail_fast ship" oneway="0"/>
    <type id="highway.track" priority="1" numLanes="1" speed="5.56" allow="pedestrian motorcycle moped bicycle" oneway="0"/>
    <type id="highway.trunk" priority="13" numLanes="2" speed="27.78" disallow="pedestrian bicycle tram rail_urban rail rail_electric rail_fast ship" oneway="0"/>
    <type id="highway.trunk_link" priority="8" numLanes="1" speed="22.22" disallow="pedestrian bicycle tram rail_urban rail rail_electric rail_fast ship" oneway="0"/>
    <type id="highway.unclassified" priority="4" numLanes="1" speed="13.89" disallow="tram rail_urban rail rail_electric rail_fast ship" oneway="0"/>
    <type id="highway.unsurfaced" priority="1" numLanes="1" speed="8.33" disallow="tram rail_urban rail rail_electric rail_fast ship" oneway="0"/>
    <type id="railway.highspeed" priority="21" numLanes="1" speed="69.44" allow="rail_fast" oneway="1"/>
    <type id="railway.light_rail" priority="19" numLanes="1" speed="27.78" allow="rail_urban" oneway="1"/>
    <type id="railway.preserved" priority="16" numLanes="1" speed="27.78" allow="rail" oneway="1"/>
    <type id="railway.rail" priority="20" numLanes="1" speed="44.44" allow="rail" oneway="1"/>
    <type id="railway.subway" priority="18" numLanes="1" speed="27.78" allow="rail_urban" oneway="1"/>
    <type id="railway.tram" priority="17" numLanes="1" speed="13.89" allow="tram" oneway="1"/>

    <edge id=":10161410288_0" function="internal">
        <lane id=":10161410288_0_0" index="0" allow="pedestrian delivery bicycle" speed="6.75" length="6.57" shape="1043.32,2417.31 1041.29,2418.43 1039.85,2419.53 1039.00,2420.60 1038.73,2421.64"/>
    </edge>
    <edge id=":10161410288_1" function="internal">
        <lane id=":10161410288_1_0" index="0" disallow="tram rail_urban rail rail_electric rail_fast ship" speed="13.89" length="6.86" shape="1039.82,2414.90 1039.35,2416.89 1038.98,2418.25 1038.77,2419.62 1038.73,2421.64"/>
    </edge>
    <edge id=":10161410297_0" function="internal">
        <lane id=":10161410297_0_0" index="0" disallow="tram rail_urban rail rail_electric rail_fast ship" speed="13.89" length="17.00" shape="1018.78,2386.40 1016.39,2383.15 1013.34,2379.94 1010.14,2376.83 1007.32,2373.89"/>
    </edge>
    <edge id=":10161410297_1" function="internal">
        <lane id=":10161410297_1_0" index="0" disallow="tram rail_urban rail rail_electric rail_fast ship" speed="13.89" length="17.13" shape="1021.61,2383.06 1017.84,2381.49 1013.92,2379.29 1010.27,2376.69 1007.32,2373.89"/>
    </edge>
    <edge id=":10161410305_0" function="internal">
        <lane id=":10161410305_0_0" index="0" disallow="tram rail_urban rail rail_electric rail_fast ship" speed="13.55" length="7.60" shape="1058.53,2328.62 1060.13,2330.13 1061.49,2330.82 1063.05,2331.23 1065.22,2331.88"/>
    </edge>
    <edge id=":10161410305_1" function="internal">
        <lane id=":10161410305_1_0" index="0" disallow="tram rail_urban rail rail_electric rail_fast ship" speed="13.89" length="7.60" shape="1058.53,2328.62 1059.97,2330.35 1060.81,2331.64 1061.55,2333.01 1062.65,2334.98"/>
    </edge>
    <edge id=":10161410310_0" function="internal">
        <lane id=":10161410310_0_0" index="0" disallow="tram rail_urban rail rail_electric rail_fast ship" speed="13.89" length="14.01" shape="1005.09,2331.32 1007.19,2328.42 1008.98,2325.52 1010.67,2322.55 1012.49,2319.45"/>
    </edge>
    <edge id=":10161410310_1" function="internal">
        <lane id=":10161410310_1_0" index="0" disallow="tram rail_urban rail rail_electric rail_fast ship" speed="13.89" length="14.06" shape="1005.09,2331.32 1007.39,2328.51 1009.75,2326.00 1012.39,2323.84 1015.53,2322.13"/>
    </edge>
    <edge id=":10161410316_0" function="internal">
        <lane id=":10161410316_0_0" index="0" disallow="tram rail_urban rail rail_electric rail_fast ship" speed="13.89" length="9.60" shape="1053.67,2320.14 1054.88,2322.73 1055.65,2324.55 1056.60,2326.24 1058.37,2328.45"/>
    </edge>
    <edge id=":10161410316_1" function="internal">
        <lane id=":10161410316_1_0" index="0" disallow="tram rail_urban rail rail_electric rail_fast ship" speed="13.89" length="9.60" shape="1050.78,2322.64 1053.16,2324.22 1054.84,2325.25 1056.39,2326.43 1058.37,2328.45"/>
    </edge>
    <edge id=":10161612618_0" function="internal">
        <lane id=":10161612618_0_0" index="0" disallow="tram rail_urban rail rail_electric rail_fast ship" speed="13.89" length="11.78" shape="1006.86,2373.36 1004.70,2370.90 1002.80,2369.03 1000.63,2367.56 997.67,2366.29"/>
    </edge>
    <edge id=":10161612618_1" function="internal">
        <lane id=":10161612618_1_0" index="0" disallow="tram rail_urban rail rail_electric rail_fast ship" speed="13.89" length="11.75" shape="1006.86,2373.36 1004.75,2370.88 1003.23,2368.73 1002.06,2366.39 1001.01,2363.32"/>
    </edge>
    <edge id=":10161612629_0" function="internal">
        <lane id=":10161612629_0_0" index="0" disallow="tram rail_urban rail rail_electric rail_fast ship" speed="7.16" length="6.72" shape="160.97,2259.05 159.18,2258.91 157.57,2259.20 156.14,2259.91 154.89,2261.05"/>
    </edge>
    <edge id=":10161612629_1" function="internal">
        <lane id=":10161612629_1_0" index="0" disallow="tram rail_urban rail rail_electric rail_fast ship" speed="27.78" length="6.76" shape="158.74,2255.26 157.65,2257.02 156.95,2258.26 156.18,2259.44 154.89,2261.05"/>
        <lane id=":10161612629_1_1" index="1" disallow="tram rail_urban rail rail_electric rail_fast ship" speed="27.78" length="6.76" shape="156.06,2253.51 155.04,2255.17 154.39,2256.34 153.67,2257.46 152.46,2258.98"/>
    </edge>
    <edge id=":10161612630_0" function="internal">
        <lane id=":10161612630_0_0" index="0" disallow="tram rail_urban rail rail_electric rail_fast ship" speed="8.15" length="7.38" shape="168.28,2226.78 168.42,2228.47 169.01,2230.09 170.05,2231.64 171.53,2233.12"/>
    </edge>
    <edge id=":10161612630_1" function="internal">
        <lane id=":10161612630_1_0" index="0" disallow="tram rail_urban rail rail_electric rail_fast ship" speed="27.78" length="7.77" shape="168.28,2226.78 168.11,2229.15 167.88,2230.76 167.54,2232.36 167.03,2234.68"/>
        <lane id=":10161612630_1_1" index="1" disallow="tram rail_urban rail rail_electric rail_fast ship" speed="27.78" length="7.77" shape="165.08,2226.63 164.93,2228.85 164.70,2230.36 164.37,2231.86 163.89,2234.04"/>
    </edge>
    <edge id=":10161612631_0" function="internal">
        <lane id=":10161612631_0_0" index="0" disallow="tram rail_urban rail rail_electric rail_fast ship" speed="13.89" length="5.59" shape="182.88,2242.73 184.15,2243.80 185.03,2244.51 185.97,2245.16 187.36,2246.07"/>
    </edge>
    <edge id=":10161612641_0" function="internal">
        <lane id=":10161612641_0_0" index="0" disallow="tram rail_urban rail rail_electric rail_fast ship" speed="13.04" length="6.97" shape="998.94,2334.66 1000.90,2333.97 1002.33,2333.56 1003.57,2332.91 1004.96,2331.48"/>
    </edge>
    <edge id=":10161612641_1" function="internal">
        <lane id=":10161612641_1_0" index="0" disallow="tram rail_urban rail rail_electric rail_fast ship" speed="13.89" length="6.94" shape="1001.74,2337.58 1002.57,2335.70 1003.11,2334.38 1003.76,2333.13 1004.96,2331.48"/>
    </edge>
    <edge id=":10161612644_0" function="internal">
        <lane id=":10161612644_0_0" index="0" disallow="tram rail_urban rail rail_electric rail_fast ship" speed="11.70" length="7.28" shape="1067.79,2365.68 1065.76,2366.48 1064.32,2367.04 1063.12,2367.88 1061.82,2369.52"/>
    </edge>
    <edge id=":10161612644_1" function="internal">
        <lane id=":10161612644_1_0" index="0" disallow="tram rail_urban rail rail_electric rail_fast ship" speed="13.89" length="7.32" shape="1064.79,2362.87 1064.07,2364.92 1063.58,2366.33 1062.95,2367.68 1061.82,2369.52"/>
    </edge>
    <edge id=":10161612650_0" function="internal">
        <lane id=":10161612650_0_0" index="0" disallow="tram rail_urban rail rail_electric rail_fast ship" speed="10.03" length="6.80" shape="1600.26,2324.12 1602.24,2323.69 1603.66,2323.36 1604.86,2322.71 1606.20,2321.29"/>
    </edge>
    <edge id=":10161612650_1" function="internal">
        <lane id=":10161612650_1_0" index="0" disallow="tram rail_urban rail rail_electric rail_fast ship" speed="13.89" length="6.87" shape="1602.95,2327.31 1603.76,2325.43 1604.31,2324.14 1605.00,2322.93 1606.20,2321.29"/>
    </edge>
    <edge id=":10161612651_0" function="internal">
        <lane id=":10161612651_0_0" index="0" disallow="tram rail_urban rail rail_electric rail_fast ship" speed="13.89" length="4.36" shape="1638.70,2413.08 1638.60,2414.36 1638.56,2415.25 1638.57,2416.13 1638.60,2417.43"/>
    </edge>
    <edge id=":10161612662_0" function="internal">
        <lane id=":10161612662_0_0" index="0" disallow="tram rail_urban rail rail_electric rail_fast ship" speed="13.89" length="12.63" shape="1615.83,2373.63 1613.95,2370.82 1612.33,2368.37 1610.64,2365.97 1608.54,2363.33"/>
    </edge>
    <edge id=":10161612662_1" function="internal">
        <lane id=":10161612662_1_0" index="0" disallow="tram rail_urban rail rail_electric rail_fast ship" speed="13.89" length="12.70" shape="1618.68,2370.73 1615.59,2369.31 1613.08,2367.75 1610.83,2365.83 1608.54,2363.33"/>
    </edge>
    <edge id=":10161612671_0" function="internal">
        <lane id=":10161612671_0_0" index="0" disallow="tram rail_urban rail rail_electric rail_fast ship" speed="11.02" length="7.11" shape="1659.61,2320.22 1661.06,2321.66 1662.32,2322.33 1663.79,2322.68 1665.86,2323.17"/>
    </edge>
    <edge id=":10161612671_1" function="internal">
        <lane id=":10161612671_1_0" index="0" disallow="tram rail_urban rail rail_electric rail_fast ship" speed="13.89" length="7.15" shape="1659.61,2320.22 1660.91,2321.88 1661.67,2323.12 1662.31,2324.44 1663.23,2326.35"/>
    </edge>
    <edge id=":10161612680_0" function="internal">
        <lane id=":10161612680_0_0" index="0" disallow="tram rail_urban rail rail_electric rail_fast ship" speed="13.89" length="7.95" shape="1606.86,2361.34 1605.25,2359.68 1603.89,2358.83 1602.34,2358.23 1600.15,2357.32"/>
    </edge>
    <edge id=":10161612680_1" function="internal">
        <lane id=":10161612680_1_0" index="0" disallow="tram rail_urban rail rail_electric rail_fast ship" speed="13.89" length="7.95" shape="1606.86,2361.34 1605.43,2359.48 1604.61,2358.09 1603.95,2356.60 1602.95,2354.46"/>
    </edge>
    <edge id=":10161612682_0" function="internal">
        <lane id=":10161612682_0_0" index="0" disallow="tram rail_urban rail rail_electric rail_fast ship" speed="11.35" length="7.25" shape="1667.46,2355.24 1665.43,2355.99 1663.98,2356.52 1662.77,2357.34 1661.46,2358.96"/>
    </edge>
    <edge id=":10161612682_1" function="internal">
        <lane id=":10161612682_1_0" index="0" disallow="tram rail_urban rail rail_electric rail_fast ship" speed="13.89" length="7.29" shape="1664.51,2352.37 1663.76,2354.40 1663.24,2355.80 1662.60,2357.13 1661.46,2358.96"/>
    </edge>
    <edge id=":10161612685_0" function="internal">
        <lane id=":10161612685_0_0" index="0" disallow="tram rail_urban rail rail_electric rail_fast ship" speed="13.89" length="9.82" shape="1653.74,2310.06 1654.90,2312.74 1655.65,2314.62 1656.58,2316.37 1658.33,2318.68"/>
    </edge>
    <edge id=":10161612685_1" function="internal">
        <lane id=":10161612685_1_0" index="0" disallow="tram rail_urban rail rail_electric rail_fast ship" speed="13.89" length="9.82" shape="1650.78,2312.47 1653.16,2314.16 1654.84,2315.28 1656.37,2316.54 1658.33,2318.68"/>
    </edge>
    <edge id=":10161612687_0" function="internal">
        <lane id=":10161612687_0_0" index="0" disallow="tram rail_urban rail rail_electric rail_fast ship" speed="13.89" length="4.88" shape="1703.94,2329.15 1708.82,2329.16"/>
    </edge>
    <edge id=":10161612707_0" function="internal">
        <lane id=":10161612707_0_0" index="0" disallow="tram rail_urban rail rail_electric rail_fast ship" speed="13.89" length="10.88" shape="2229.66,2553.27 2229.49,2542.39"/>
    </edge>
    <edge id=":10161612707_1" function="internal">
        <lane id=":10161612707_1_0" index="0" disallow="tram rail_urban rail rail_electric rail_fast ship" speed="6.53" length="8.86" shape="2224.04,2548.01 2226.43,2547.57 2228.14,2546.49 2229.16,2544.76 2229.49,2542.39"/>
    </edge>
    <edge id=":10161612719_0" function="internal">
        <lane id=":10161612719_0_0" index="0" disallow="tram rail_urban rail rail_electric rail_fast ship" speed="6.51" length="8.95" shape="2217.13,1818.64 2216.71,1816.23 2215.63,1814.52 2213.87,1813.51 2211.44,1813.21"/>
    </edge>
    <edge id=":10161612719_1" function="internal">
        <lane id=":10161612719_1_0" index="0" disallow="tram rail_urban rail rail_electric rail_fast ship" speed="13.89" length="11.05" shape="2217.13,1818.64 2216.98,1807.59"/>
    </edge>
    <edge id=":10161612730_0" function="internal">
        <lane id=":10161612730_0_0" index="0" disallow="tram rail_urban rail rail_electric rail_fast ship" speed="13.89" length="4.07" shape="2015.98,1591.99 2014.79,1592.14 2013.97,1592.23 2013.14,1592.28 2011.93,1592.33"/>
    </edge>
    <edge id=":10161612730_1" function="internal">
        <lane id=":10161612730_1_0" index="0" disallow="tram rail_urban rail rail_electric rail_fast ship" speed="9.51" length="3.77" shape="2015.37,1588.08 2014.41,1588.64 2013.70,1588.94 2012.93,1589.07 2011.82,1589.13"/>
    </edge>
    <edge id=":10161612731_0" function="internal">
        <lane id=":10161612731_0_0" index="0" disallow="tram rail_urban rail rail_electric rail_fast ship" speed="13.89" length="9.43" shape="2214.55,1663.12 2214.36,1653.69"/>
    </edge>
    <edge id=":10161612731_1" function="internal">
        <lane id=":10161612731_1_0" index="0" disallow="tram rail_urban rail rail_electric rail_fast ship" speed="6.04" length="7.86" shape="2214.55,1663.12 2214.67,1660.34 2215.22,1658.36 2216.21,1657.17 2217.63,1656.78"/>
    </edge>
    <edge id=":10161612731_2" function="internal">
        <lane id=":10161612731_2_0" index="0" disallow="tram rail_urban rail rail_electric rail_fast ship" speed="6.14" length="7.82" shape="2217.61,1659.98 2216.21,1659.58 2215.20,1658.40 2214.59,1656.43 2214.36,1653.69"/>
    </edge>
    <edge id=":10161612731_3" function="internal">
        <lane id=":10161612731_3_0" index="0" disallow="tram rail_urban rail rail_electric rail_fast ship" speed="3.65" length="4.67" shape="2217.61,1659.98 2216.42,1659.17 2216.02,1658.37 2216.43,1657.57 2217.63,1656.78"/>
    </edge>
    <edge id=":10161612732_0" function="internal">
        <lane id=":10161612732_0_0" index="0" disallow="tram rail_urban rail rail_electric rail_fast ship" speed="6.57" length="9.05" shape="2225.18,1665.57 2224.79,1663.14 2223.71,1661.40 2221.93,1660.35 2219.48,1659.99"/>
    </edge>
    <edge id=":10161612732_1" function="internal">
        <lane id=":10161612732_1_0" index="0" disallow="tram rail_urban rail rail_electric rail_fast ship" speed="22.22" length="14.33" shape="2225.18,1665.57 2225.13,1651.25"/>
    </edge>
    <edge id=":10161612732_2" function="internal">
        <lane id=":10161612732_2_0" index="0" disallow="tram rail_urban rail rail_electric rail_fast ship" speed="6.51" length="9.01" shape="2219.49,1656.79 2221.94,1656.46 2223.69,1655.42 2224.75,1653.68 2225.13,1651.25"/>
    </edge>
    <edge id=":10161612732_3" function="internal">
        <lane id=":10161612732_3_0" index="0" disallow="tram rail_urban rail rail_electric rail_fast ship" speed="3.65" length="4.67" shape="2219.49,1656.79 2220.69,1657.60 2221.08,1658.40 2220.68,1659.20 2219.48,1659.99"/>
    </edge>
    <edge id=":10161612733_0" function="internal">
        <lane id=":10161612733_0_0" index="0" disallow="tram rail_urban rail rail_electric rail_fast ship" speed="9.11" length="3.81" shape="2039.53,1574.80 2038.41,1574.83 2037.64,1574.96 2036.92,1575.25 2035.94,1575.81"/>
    </edge>
    <edge id=":10161612733_1" function="internal">
        <lane id=":10161612733_1_0" index="0" disallow="tram rail_urban rail rail_electric rail_fast ship" speed="22.22" length="3.89" shape="2039.50,1571.60 2035.61,1571.66"/>
    </edge>
    <edge id=":10161612734_0" function="internal">
        <lane id=":10161612734_0_0" index="0" disallow="tram rail_urban rail rail_electric rail_fast ship" speed="13.89" length="6.66" shape="2203.67,2318.04 2205.56,2317.48 2206.83,2317.01 2208.07,2316.46 2209.87,2315.65"/>
    </edge>
    <edge id=":10161612734_1" function="internal">
        <lane id=":10161612734_1_0" index="0" disallow="tram rail_urban rail rail_electric rail_fast ship" speed="6.85" length="6.38" shape="2203.67,2318.04 2205.17,2317.84 2206.63,2318.10 2208.04,2318.83 2209.40,2320.01"/>
    </edge>
    <edge id=":10161612735_0" function="internal">
        <lane id=":10161612735_0_0" index="0" disallow="tram rail_urban rail rail_electric rail_fast ship" speed="13.89" length="4.80" shape="2212.77,2314.05 2214.00,2313.33 2214.83,2312.81 2215.62,2312.24 2216.74,2311.36"/>
    </edge>
    <edge id=":10161612736_0" function="internal">
        <lane id=":10161612736_0_0" index="0" disallow="tram rail_urban rail rail_electric rail_fast ship" speed="13.89" length="7.81" shape="2225.15,2308.84 2225.10,2301.03"/>
    </edge>
    <edge id=":10161612736_1" function="internal">
        <lane id=":10161612736_1_0" index="0" disallow="tram rail_urban rail rail_electric rail_fast ship" speed="9.75" length="7.72" shape="2221.33,2307.40 2222.96,2305.76 2224.14,2304.57 2224.86,2303.20 2225.10,2301.03"/>
    </edge>
    <edge id=":10161612739_0" function="internal">
        <lane id=":10161612739_0_0" index="0" disallow="tram rail_urban rail rail_electric rail_fast ship" speed="9.71" length="7.54" shape="2225.63,2356.24 2225.30,2354.14 2224.54,2352.83 2223.35,2351.71 2221.70,2350.17"/>
    </edge>
    <edge id=":10161612739_1" function="internal">
        <lane id=":10161612739_1_0" index="0" disallow="tram rail_urban rail rail_electric rail_fast ship" speed="13.89" length="7.63" shape="2225.63,2356.24 2225.49,2348.62"/>
    </edge>
    <edge id=":10161612744_0" function="internal">
        <lane id=":10161612744_0_0" index="0" disallow="tram rail_urban rail rail_electric rail_fast ship" speed="13.89" length="6.24" shape="2210.77,2342.89 2209.06,2342.19 2207.88,2341.72 2206.67,2341.32 2204.89,2340.81"/>
    </edge>
    <edge id=":10161612744_1" function="internal">
        <lane id=":10161612744_1_0" index="0" disallow="tram rail_urban rail rail_electric rail_fast ship" speed="6.34" length="2.21" shape="2209.76,2338.66 2208.54,2339.85 2208.11,2340.12"/>
    </edge>
    <edge id=":10161612744_2" function="internal">
        <lane id=":10161612744_2_0" index="0" disallow="tram rail_urban rail rail_electric rail_fast ship" speed="6.34" length="3.41" shape="2208.11,2340.12 2207.32,2340.61 2206.10,2340.93 2204.89,2340.81"/>
    </edge>
    <edge id=":10161612747_0" function="internal">
        <lane id=":10161612747_0_0" index="0" disallow="tram rail_urban rail rail_electric rail_fast ship" speed="8.24" length="7.73" shape="1951.95,2343.99 1950.25,2344.24 1948.63,2344.98 1947.08,2346.21 1945.60,2347.92"/>
    </edge>
    <edge id=":10161612747_1" function="internal">
        <lane id=":10161612747_1_0" index="0" disallow="tram rail_urban rail rail_electric rail_fast ship" speed="13.89" length="7.91" shape="1951.95,2343.99 1944.03,2344.09"/>
    </edge>
    <edge id=":10161612750_0" function="internal">
        <lane id=":10161612750_0_0" index="0" disallow="tram rail_urban rail rail_electric rail_fast ship" speed="13.89" length="11.25" shape="1657.83,2363.60 1655.84,2366.05 1654.52,2368.12 1653.35,2370.29 1651.80,2373.06"/>
    </edge>
    <edge id=":10161612750_1" function="internal">
        <lane id=":10161612750_1_0" index="0" disallow="tram rail_urban rail rail_electric rail_fast ship" speed="13.89" length="11.33" shape="1657.83,2363.60 1655.68,2365.97 1653.86,2367.68 1651.80,2369.04 1648.92,2370.35"/>
    </edge>
    <edge id=":10161612759_0" function="internal">
        <lane id=":10161612759_0_0" index="0" disallow="tram rail_urban rail rail_electric rail_fast ship" speed="9.55" length="7.67" shape="1653.50,2780.83 1655.12,2782.45 1656.32,2783.62 1657.69,2784.32 1659.85,2784.52"/>
    </edge>
    <edge id=":10161612759_1" function="internal">
        <lane id=":10161612759_1_0" index="0" disallow="tram rail_urban rail rail_electric rail_fast ship" speed="13.89" length="7.78" shape="1652.07,2784.71 1659.85,2784.52"/>
    </edge>
    <edge id=":10161612765_0" function="internal">
        <lane id=":10161612765_0_0" index="0" disallow="tram rail_urban rail rail_electric rail_fast ship" speed="9.25" length="8.59" shape="1622.76,2785.51 1624.69,2785.23 1626.55,2784.47 1628.35,2783.23 1630.08,2781.51"/>
    </edge>
    <edge id=":10161612765_1" function="internal">
        <lane id=":10161612765_1_0" index="0" disallow="tram rail_urban rail rail_electric rail_fast ship" speed="13.89" length="8.64" shape="1622.76,2785.51 1631.40,2785.29"/>
    </edge>
    <edge id=":10161612778_0" function="internal">
        <lane id=":10161612778_0_0" index="0" disallow="tram rail_urban rail rail_electric rail_fast ship" speed="9.83" length="7.51" shape="1351.37,2354.79 1349.27,2355.12 1347.96,2355.87 1346.84,2357.06 1345.30,2358.69"/>
    </edge>
    <edge id=":10161612778_1" function="internal">
        <lane id=":10161612778_1_0" index="0" disallow="tram rail_urban rail rail_electric rail_fast ship" speed="13.89" length="7.60" shape="1351.37,2354.79 1343.78,2354.90"/>
    </edge>
    <edge id=":10161612781_0" function="internal">
        <lane id=":10161612781_0_0" index="0" disallow="tram rail_urban rail rail_electric rail_fast ship" speed="9.71" length="7.75" shape="1352.65,2786.13 1354.32,2787.76 1355.53,2788.93 1356.91,2789.64 1359.09,2789.85"/>
    </edge>
    <edge id=":10161612781_1" function="internal">
        <lane id=":10161612781_1_0" index="0" disallow="tram rail_urban rail rail_electric rail_fast ship" speed="13.89" length="7.84" shape="1351.25,2789.98 1359.09,2789.85"/>
    </edge>
    <edge id=":10161612790_0" function="internal">
        <lane id=":10161612790_0_0" index="0" disallow="tram rail_urban rail rail_electric rail_fast ship" speed="8.24" length="7.46" shape="1325.19,2790.43 1326.58,2790.15 1328.03,2789.36 1329.53,2788.04 1331.08,2786.21"/>
    </edge>
    <edge id=":10161612790_1" function="internal">
        <lane id=":10161612790_1_0" index="0" disallow="tram rail_urban rail rail_electric rail_fast ship" speed="13.89" length="7.96" shape="1325.19,2790.43 1333.16,2790.30"/>
    </edge>
    <edge id=":10161612797_0" function="internal">
        <lane id=":10161612797_0_0" index="0" disallow="tram rail_urban rail rail_electric rail_fast ship" speed="9.79" length="8.66" shape="1322.02,2358.86 1320.26,2356.99 1318.87,2355.78 1317.24,2355.12 1314.76,2354.88"/>
    </edge>
    <edge id=":10161612797_1" function="internal">
        <lane id=":10161612797_1_0" index="0" disallow="tram rail_urban rail rail_electric rail_fast ship" speed="13.89" length="8.59" shape="1323.35,2354.91 1314.76,2354.88"/>
    </edge>
    <edge id=":10161612801_0" function="internal">
        <lane id=":10161612801_0_0" index="0" disallow="tram rail_urban rail rail_electric rail_fast ship" speed="9.41" length="3.83" shape="1622.21,2637.26 1621.20,2636.76 1620.46,2636.55 1619.67,2636.51 1618.53,2636.53"/>
    </edge>
    <edge id=":10161612801_1" function="internal">
        <lane id=":10161612801_1_0" index="0" disallow="tram rail_urban rail rail_electric rail_fast ship" speed="4.86" length="3.03" shape="1622.21,2637.26 1620.76,2636.15 1620.39,2635.01"/>
    </edge>
    <edge id=":10161612801_4" function="internal">
        <lane id=":10161612801_4_0" index="0" disallow="tram rail_urban rail rail_electric rail_fast ship" speed="4.86" length="3.59" shape="1620.39,2635.01 1621.12,2633.82 1622.94,2632.58"/>
    </edge>
    <edge id=":10161612801_2" function="internal">
        <lane id=":10161612801_2_0" index="0" disallow="tram rail_urban rail rail_electric rail_fast ship" speed="11.19" length="4.60" shape="1618.48,2633.33 1619.85,2633.35 1620.81,2633.34 1621.72,2633.14 1622.94,2632.58"/>
    </edge>
    <edge id=":10161612801_3" function="internal">
        <lane id=":10161612801_3_0" index="0" disallow="tram rail_urban rail rail_electric rail_fast ship" speed="3.65" length="2.34" shape="1618.48,2633.33 1619.69,2634.11 1620.11,2634.91"/>
    </edge>
    <edge id=":10161612801_5" function="internal">
        <lane id=":10161612801_5_0" index="0" disallow="tram rail_urban rail rail_electric rail_fast ship" speed="3.65" length="2.34" shape="1620.11,2634.91 1619.72,2635.71 1618.53,2636.53"/>
    </edge>
    <edge id=":10161612802_0" function="internal">
        <lane id=":10161612802_0_0" index="0" disallow="tram rail_urban rail rail_electric rail_fast ship" speed="13.89" length="0.60" shape="1665.87,2634.88 1665.28,2634.84"/>
    </edge>
    <edge id=":10161612802_1" function="internal">
        <lane id=":10161612802_1_0" index="0" disallow="tram rail_urban rail rail_electric rail_fast ship" speed="3.65" length="2.34" shape="1665.87,2634.88 1664.66,2634.09 1664.26,2633.30"/>
    </edge>
    <edge id=":10161612802_4" function="internal">
        <lane id=":10161612802_4_0" index="0" disallow="tram rail_urban rail rail_electric rail_fast ship" speed="3.65" length="2.34" shape="1664.26,2633.30 1664.65,2632.49 1665.84,2631.68"/>
    </edge>
    <edge id=":10161612802_2" function="internal">